# pm3 
 
input prepared by QMMol 

0  1
C     1.48797    1.31458    0.27599
C     2.99462    1.33681    0.02801
C     3.53966   -0.05690   -0.30056
O     2.98665   -0.54261   -1.49432
H     1.14002    2.33641    0.53621
H     1.24520    0.63203    1.11812
H     0.94905    0.97975   -0.63559
H     3.50328    1.71687    0.94019
H     3.22130    2.03363   -0.80781
H     4.64946   -0.01331   -0.38207
H     3.29262   -0.75979    0.52352
H     3.43148   -0.05161   -2.23377

