# pm3 
 
input prepared by QMMol 

0  1
C     1.51656    1.32023    0.19568
C     3.03499    1.31434    0.04452
C     3.55996   -0.09367   -0.23049
O     4.95334   -0.05424   -0.36209
H     1.16703    2.35530    0.39425
H     1.21070    0.67298    1.04517
H     1.03445    0.95522   -0.73623
H     3.49494    1.70478    0.97829
H     3.31953    1.98568   -0.79468
H     3.28378   -0.76598    0.61291
H     3.10739   -0.48349   -1.17007
H     5.23951   -0.98808   -0.53836

