# pm3 
 
input prepared by QMMol 

0  1
C     1.50714    1.31756    0.20694
C     3.02486    1.33316    0.05089
C     3.56560   -0.06515   -0.25730
O     4.96254   -0.03100   -0.36586
H     1.14583    2.34388    0.42846
H     1.21197    0.64882    1.04345
H     1.02651    0.96640   -0.73104
H     3.48368    1.70802    0.99148
H     3.29735    2.02686   -0.77386
H     3.29414   -0.75789    0.56776
H     3.11506   -0.45628   -1.19835
H     5.16904    0.36589   -1.25227

