# pm3 
 
input prepared by QMMol 

0  1
C     1.49210    1.34177    0.17193
C     3.01503    1.32023    0.06150
C     3.54734   -0.08941   -0.21599
O     3.25244   -0.95476    0.84749
H     1.14775    2.38297    0.34584
H     1.15525    0.71198    1.02247
H     1.03145    0.96805   -0.76728
H     3.45934    1.70910    1.00326
H     3.32463    1.99213   -0.76793
H     3.08552   -0.48841   -1.14428
H     4.64781   -0.04632   -0.38128
H     3.87675   -0.72283    1.58381

