# pm3 
 
input prepared by QMMol 

0  1
C     1.49764    1.31536    0.19190
C     3.01249    1.35198    0.01312
C     3.57801   -0.05105   -0.22002
O     4.96501    0.01163   -0.41158
H     1.11830    2.34536    0.35967
H     1.22781    0.68999    1.06952
H     1.01156    0.90152   -0.71725
H     3.47440    1.79207    0.92342
H     3.26099    1.99984   -0.85538
H     3.33734   -0.71425    0.64240
H     3.11706   -0.49009   -1.13057
H     5.36982    0.14708    0.48489

