# pm3 
 
input prepared by QMMol 

0  1
C     1.50460    1.34326    0.18703
C     3.02603    1.29975    0.06120
C     3.53199   -0.10950   -0.24911
O     3.26217   -0.96641    0.82590
H     1.17906    2.38548    0.38882
H     1.16512    0.69888    1.02553
H     1.02904    0.99966   -0.75627
H     3.48554    1.66006    1.00714
H     3.33839    1.98415   -0.75699
H     3.04395   -0.49078   -1.17430
H     4.63043   -0.06540   -0.42155
H     3.60786   -1.85790    0.56014

