# pm3 
 
input prepared by QMMol 

0  1
C     1.51090    1.32530    0.21655
C     3.02553    1.31380    0.02096
C     3.55299   -0.09361   -0.26054
O     3.05565   -0.55916   -1.48473
H     1.17401    2.35930    0.44078
H     1.22607    0.66772    1.06536
H     0.99711    0.97878   -0.70512
H     3.50956    1.70350    0.94251
H     3.29448    1.98727   -0.82160
H     4.66443   -0.05765   -0.30134
H     3.25150   -0.78132    0.56147
H     3.42830   -1.47122   -1.60373

