12
	Energy:       5.0357039
C          1.51778        1.31942        0.20030
C          3.03508        1.31309        0.03796
C          3.55739       -0.09409       -0.24789
O          4.94969       -0.05094       -0.38676
H          1.17070        2.35245        0.41324
H          1.21678        0.66242        1.04409
H          1.02809        0.96445       -0.73153
H          3.50100        1.69514        0.97227
H          3.31300        1.98843       -0.80039
H          3.28452       -0.76021        0.60206
H          3.10076       -0.47346       -1.18945
H          5.24739       -0.99362       -0.47499
